  323
 i =     5862, time =     5862.000, E =     -1929.3911969659
  N         6.0190279420       13.5074983808       19.5738632988
  H         6.0579514540       12.7677124850       18.8763263579
  H         6.4610664417       13.2452088437       20.4390609561
  C         4.6315155061       14.0160896588       19.8543295658
  H         4.6702582731       15.0209570394       20.3478249962
  H         4.1195959347       14.2204704789       18.9390284106
  C         3.7486560756       13.1163881521       20.7797561818
  O         2.5764155300       13.4692630861       21.0192746459
  O         4.3481653033       12.1394030045       21.3522239093
  K         4.1280610668       -2.2696496397        9.1964788719
  N        11.0076059692       11.0480552832       10.8594425271
  H        11.3609568424       11.5206718557       10.0431938609
  H        11.7258301875       10.7621708615       11.4616052037
  C         9.8358037006       11.6672038225       11.5004052492
  H         9.8076919668       11.2063169831       12.5064049513
  H         8.9671430199       11.3320028037       10.9260837723
  C         9.8362854856       13.1698500098       11.5560311904
  O        10.6528783642       13.7907774906       10.7597701932
  O         9.0613288802       13.6759439419       12.4558527977
  C        10.5199463389        8.9866764413       10.2242715621
  O         9.3711381594        9.0053018032        9.9892438316
  O        11.6285617245        8.6044794485       10.4215887601
  K        13.2157422583       -0.7878647837        1.9017414762
  O         2.7147173985        2.0758095834       16.2665952134
  H         3.3227732043        1.2510245282       16.2782775021
  O        13.3740990694        7.5763653135       12.5732852497
  O         4.3600473310        2.5416639329        6.6560157295
  O         7.0050116672       16.5932099327        7.1591449042
  O         4.2578626141        5.3036714292        6.7058918478
  O        13.3124799715       -0.4375471371        4.8162939124
  O         6.0512467125        5.5236270770        1.9064211990
  O         6.9141364457        3.7277593900        9.5695663622
  O        10.0321798429        4.7876410958       11.9396933136
  O        10.8652454214       12.1112490073       17.1242834632
  O         9.6223933766        2.0276714915       10.6862620142
  O         0.5576434509       12.5894137791       18.3448834328
  O        12.8557378708       11.6385276508       -1.7300827600
  O        13.9987637419       -3.2560758472       15.4671423853
  O         5.0726997532       11.0956055080        2.2524778630
  O         3.3406316219        0.9676839790        8.3804510021
  O         8.3075965338        6.0443609457        9.7681943937
  O         6.9925312711        0.9676372922       18.0019391459
  O         4.5680263908       13.1370863585       12.0204070729
  O         9.5045402439       15.3435534366       17.1466403854
  O        -0.5900816630        5.8369870504        1.9327697362
  O        -0.9551287730        4.4275901495        6.1488102432
  O         3.8960071267        1.6030065467       11.3465300922
  O         0.9417376779        0.5032967831       12.6816553581
  O         4.1653152946        6.8483839175       11.4983686044
  O        12.8138014041        2.9589370956       11.4731650045
  O         4.6601024468        3.6980770618       13.6643282507
  O         2.0411682253       10.8966238043       16.7961832922
  O         1.7219680767        5.0872146081        7.8699162883
  O        13.9628500705       10.9880103917        4.5946023167
  O         5.5196180739       10.3799507357        4.9232660768
  O         8.3103121463        8.3884908858       13.2074997682
  O        13.5686977545        6.9849093367        4.5223801867
  O         3.1358584158        9.6672388645       12.4780765059
  O         6.9163451295       14.8902423978       15.4365568433
  O         6.8217273554        2.9257877776       12.2234695502
  O        14.7919182113       11.8462836696       10.5842511006
  O         8.3711566710        2.1127169955       14.4876396663
  O        -1.1116298766        9.6095343201        2.3519179348
  O         2.5513797657        9.7364342910        6.9687126467
  O        -2.2424959528        7.0837136546        7.2941233162
  O         8.0132274320        5.7417145909       13.5221470937
  O         6.4360800880       10.0892519910        8.3875348805
  O        11.1283670689        7.8086303358        4.5572607786
  O        17.4000883635        5.7302952635        4.5117140601
  O        14.0085499326        8.4348736782        8.9695505098
  O         8.9278683293        4.4774183527       16.1496865068
  O        16.3275406868       11.1166149264       14.2415147232
  O         9.1322388875        9.3696052473        6.9797310194
  O         2.3667003328        7.3197291195       14.1028852653
  O         0.7097468928        5.8920651480       12.0370225208
  O        11.1936311996        8.6860698430        1.6768279420
  O         4.1488978963       14.7701806671       16.0065929658
  O         5.1721290308        3.1014637268       17.0369113291
  O         7.0152023567       10.1135146758       15.5176646461
  O         9.6031065747       13.5717012836        4.4100225077
  O        13.4944566705       12.4612092106        8.3322651869
  O         0.6574304344        0.7444108787        5.7133092637
  O        11.6690289327       13.8750982729       -0.6684749988
  O         8.7108382728       12.7284900187       15.1036874682
  O         2.0554815407        2.7925011584       19.5037958033
  O        17.4083718028       13.3183629233       13.9780669595
  O         8.1161769648       11.3058687111        5.2904975284
  O        -1.7329213664        3.7382712308        0.6063801828
  O         8.5426674379        9.4329138347        3.1849277770
  O         2.1239826298       10.4889976111        9.6725655040
  O        -2.1570113674        2.2662272708        7.4067026705
  O        -0.1875553922       15.0958138567        8.6544836733
  O         1.7678611925       -0.6220485542       10.2281441677
  O         4.7950764366        6.1857138824       14.3054849515
  O        11.3367194278        3.7572842694        9.1716724485
  O         5.9363949443        7.9097104579        6.2323503040
  O        -0.0356680397        1.3288662695       15.2352514268
  O        10.9658161299        9.1862288297       13.5780405083
  O         9.3268499344        5.0405849868       20.2475129318
  O        10.6381130992       -1.9694621457        8.2620301460
  O        14.5766008096       10.2741307929        7.1556305403
  O         4.2019011966        4.3282825336       10.1161097284
  O         1.3986796470        3.0388109995        9.8928577482
  O         8.7939195200        2.1158078896        5.1826794196
  O         6.8488630148        0.1603842213       11.5159186826
  O        11.0243931721       -4.4221123375        4.5940772242
  O        11.8820000317        2.0176914070       17.4476326407
  O         2.1243611716        4.8411948734       16.2600748292
  O         6.5399427916       -0.3498620690        8.7691513430
  O        10.8392460093        6.1569733855        2.3489998212
  O         1.3286292567        3.4590430648       13.1427879822
  O        10.1840120595        5.9178346943        7.6879077098
  O         1.8327308879        8.2936573391        4.3876362893
  O        12.3794749313        4.9861443212       13.1420010648
  O        11.7476446212        4.4577823766       19.1927928176
  O         8.0229327276       12.3738375142        8.0416393566
  O        12.9441843410        0.2484815603       11.2826542406
  O        10.5926596864        0.5493715757        6.7934634168
  O         7.7374437582        7.0309029914        4.2618872018
  O         1.6119201719        7.3395496546        9.7380950036
  O         6.7951066793        8.0322011738       10.8694171208
  O        10.8851844782        1.7207276267       13.5167064238
  O        -0.4124895288        7.7276074314       15.0921368106
  O         5.8350436357       10.8114742138       11.9315798662
  H         2.4668276341        2.1905493093       17.2663088256
  H        13.0677193534        6.6011619210       12.7191702236
  H        12.6540108885        8.0348323019       12.1080124273
  H         5.3129850452        2.4124005667        6.8322034098
  H         3.9511938178        2.0920222193        7.4857578259
  H         7.1837867403       17.1542059002        7.9586819072
  H         7.8572456635       16.7181142737        6.5860388708
  H         3.4591811813        5.4114430689        7.2951658341
  H         4.4458562593        4.3240862299        6.7733287156
  H        12.4857610261       -0.0113980127        4.9639946580
  H        14.0570264434        0.2090681369        5.0930219116
  H         5.5954137813        4.5905056885        2.2036331940
  H         6.3686561521        5.8523314513        2.7867725663
  H         7.1456556811        3.3026324234       10.4510235422
  H         5.9041580493        3.8177514915        9.6320688287
  H         9.9294568074        5.2610019115       11.1155395140
  H         9.2392299450        5.0956727038       12.4572514408
  H        10.4486054157       12.4943701064       17.8726230935
  H        10.0471642574       12.0858866329       16.5669029418
  H         9.9221598722        2.3702497304       11.5745118735
  H         9.6251103357        1.0321329886       10.7060962657
  H         1.0031300122       13.0983771301       19.0702865690
  H         1.0997297999       11.9700916557       17.7855906374
  H        13.3294969796       11.6191291282       -0.8221178772
  H        13.5354067886       11.5001123884       -2.4314482933
  H        13.6292779420       -3.9429923602       16.1204327974
  H        14.8676468005       -3.5702577467       15.0948856280
  H         4.9789201574       10.9461169814        3.2420867606
  H         4.1963622542       11.2196104070        1.9104415153
  H         2.5124054528        0.5808343455        8.2192323602
  H         3.4332953202        1.0667676844        9.3463438389
  H         8.9610097548        6.0899887521        9.0403167761
  H         7.8298002533        5.1649723163        9.7167402697
  H         7.5409309115        1.3616416269       18.7396597500
  H         6.5949700679        0.1473162685       18.4804106547
  H         5.2151424534       12.2953797315       12.2438502806
  H         5.1824662837       13.9199960623       11.9192916295
  H         8.5842343396       15.7760337546       17.1881455027
  H         9.5268004668       14.9459933107       16.2006814056
  H        -0.7906661825        6.4545784675        1.2164959164
  H        -0.9086553818        6.1509904181        2.7526748419
  H         0.0011438346        4.7416520954        6.3959173927
  H        -1.3197715045        3.6963861009        6.7551328675
  H         3.4140326796        1.9154700873       12.0807178115
  H         4.2810674374        2.4569843397       11.0488021482
  H         1.1405709006        1.4388339147       13.0142759342
  H        -0.0160780853        0.5439227261       12.8336334480
  H         4.1301157757        6.6234471456       12.4331437269
  H         5.0850607308        7.3124238084       11.3937984041
  H        12.9845078127        1.9891696669       11.3294670722
  H        12.2156649713        3.1312096680       10.6934982382
  H         4.6961411603        4.6267891327       13.9716693497
  H         4.4895515992        3.3021822993       14.4996239853
  H         2.0980176720        9.9895393050       17.1832622024
  H         1.8652919043       10.7957394155       15.7760592371
  H         1.7007038131        5.9019892780        8.3912282102
  H         1.4834667841        4.4070705499        8.5264901229
  H        14.5246224981       11.7846745555        4.3200173174
  H        13.0629342540       11.2872598269        4.6712402146
  H         5.0935541104       11.0419511280        5.4941781556
  H         6.4333826383       10.7214457065        4.8811011077
  H         9.2067481168        8.7324300407       13.1770024158
  H         7.8486991975        8.9191745468       13.9383556233
  H        12.6049104728        7.2923498259        4.6368941189
  H        13.8064305451        6.4461721152        5.2724294109
  H         3.0040714284        8.7857807388       12.8549424225
  H         2.7995316954        9.6229276790       11.5825946446
  H         7.2159291574       15.3070563472       16.2689059444
  H         7.4180827518       15.5496771247       14.8302824841
  H         7.4626886753        2.6402752520       12.9045469512
  H         6.0305052570        3.2813306390       12.8145247462
  H        14.3607820687       12.2555280354        9.7514096438
  H        15.4241518673       12.4981385879       10.9501335560
  H         8.6271299500        2.8661673173       15.1362028520
  H         9.2142623440        1.9387671124       13.9712908380
  H        -1.9855723090        9.1566207157        2.2332247306
  H        -1.1622975411       10.0207899137        3.2807925464
  H         3.0408007645       10.4973727758        6.5489648517
  H         2.3723484398        9.0657302144        6.2780698806
  H        -1.6279518001        7.5288269972        7.9061969164
  H        -1.8413729656        6.2417688422        7.1211785640
  H         8.1764085125        6.7924215719       13.4112847553
  H         7.0681883043        5.6711460218       13.1719311875
  H         6.5048274306        9.4369129549        9.1323145516
  H         6.1295601038        9.6388045787        7.5989030960
  H        11.0836723814        8.8780448618        4.4033035398
  H        10.3417120485        7.4594625611        4.1312310704
  H        17.5609657801        5.3776089740        3.5762835876
  H        18.2101604632        5.5149511968        5.0111350283
  H        13.2393440469        8.5250021058        9.4983227376
  H        14.0821305773        9.1772830313        8.3056780961
  H         9.1167497671        5.0665902958       15.3946520783
  H         7.9727102950        4.7686021571       16.3319612381
  H        16.6633666719       10.5569418166       13.5099622755
  H        16.6989325841       12.0467204834       14.1431252624
  H         8.8377517730        9.0095936712        7.8025317527
  H         9.7273776906        8.6612880885        6.6030366556
  H         1.6409384377        7.5417547918       14.7250073694
  H         1.9318661269        6.8917582201       13.3925419138
  H        -0.2718120708        6.1742546513       12.0127434925
  H         1.1273817529        6.2605716614       11.2185081205
  H        11.1056884719        7.7530778694        2.1108145918
  H        10.4173097253        9.1757039388        2.0972224574
  H         5.0915479588       14.8188899908       15.7931509205
  H         3.8269136847       14.2118529011       15.3316814923
  H         5.8541318921        2.4119179628       17.1808029469
  H         4.3277733244        2.6608271034       16.8996209471
  H         6.1736797993       10.4274957503       15.9565315541
  H         7.4799438590       10.8952352345       15.1839476650
  H        10.0238567700       13.9029578948        5.2498812852
  H         9.4590571346       14.4567406626        3.8841868981
  H        12.5241798804       12.5149744441        8.1716182057
  H        13.8610204255       11.6501591350        7.9269436049
  H         1.1280926155        1.3643192201        5.1250899154
  H         1.3127245738        0.0192463257        5.8175075044
  H        10.8936691628       13.3640554074       -0.6194139901
  H        12.1455243449       13.3288607551       -1.3764831302
  H         8.8346885887       12.8327650729       14.1351235207
  H         7.9662651708       13.4230993402       15.2872369447
  H         2.8172641056        2.8132394990       20.1262742087
  H         1.7022494699        3.6909738375       19.4763475242
  H        18.1402458011       13.1669382771       13.2727155699
  H        16.8621981146       14.0019439427       13.6237335654
  H         8.2978240739       12.2375698849        5.2794442761
  H         8.5236480592       10.9064023207        6.0882213719
  H        -1.9418683140        4.1489027800       -0.2932432701
  H        -1.3433675475        4.4973015536        1.1307889147
  H         8.1965975028        9.7561121255        2.3321369964
  H         8.6356549162       10.1697334208        3.8415414752
  H         1.9891656754       10.1413956140        8.7844036441
  H         1.3654311235       10.8877152101       10.0469622764
  H        -2.7884009608        2.8422833966        7.9675366759
  H        -1.5010344917        2.0551876658        8.1013080018
  H         0.2107732808       15.5619513534        7.8960633826
  H        -0.5882832318       14.2257606894        8.2916634992
  H         1.0610759231       -0.4137026236        9.6128818148
  H         1.5910632985       -0.1381971230       11.0429138493
  H         5.2357229277        6.1241426611       15.2023370386
  H         3.8490212939        6.5081957231       14.5800145964
  H        10.9449062344        4.5759699470        8.7725273483
  H        10.5707865041        3.2366506482        9.4596512577
  H         5.1266709809        7.3247759302        6.2048356203
  H         5.5873421458        8.6567652400        5.6605943109
  H        -0.6887985614        2.0628945112       15.3433310768
  H         0.7730798523        1.6104827964       15.6752421381
  H        11.0660197911        9.0079700563       14.5390054076
  H        11.5900365910        9.9443445397       13.4953684257
  H         8.7898040001        5.8535942603       19.9051871660
  H        10.0873909667        5.0070481786       19.7162772321
  H        10.7050572417       -1.6624018271        9.2242626663
  H         9.7285811862       -2.2204053077        8.0972937863
  H        15.5293548163       10.5006836018        6.9689545514
  H        14.1344535077       10.2080579870        6.2875390664
  H         3.7260127891        4.4403863726        9.2781073543
  H         3.9550122888        5.1098703691       10.6881170582
  H         2.3636734063        3.1600282557       10.1574532552
  H         0.8296957004        3.0758135173       10.7079940632
  H         9.4525673941        1.7562166305        5.8097864233
  H         8.9518704691        3.1262772630        5.1798255625
  H         7.7150499850       -0.0142029721       11.9732211861
  H         6.5798854428        1.0766626956       11.7857552783
  H        10.8925696587       -4.1592495682        3.6103000566
  H        10.2343815319       -4.0055863749        5.0237857834
  H        12.2071378366        2.6098892517       16.7743135448
  H        11.0916210029        1.5103215373       17.1848931398
  H         1.1844047697        5.1258878644       16.3041498395
  H         2.2040480400        4.0324982222       15.6596325702
  H         6.7621099557       -0.0038440572        9.7234491215
  H         6.8189209295        0.3281639371        8.1218374380
  H         9.9289265951        5.7105801992        2.1740452522
  H        11.2190091403        5.5234398164        3.0371591245
  H         0.7373751365        4.1942241689       13.3569901786
  H         2.2054221893        3.7349865131       12.8978282268
  H         9.8595602325        5.5753857275        6.8020913831
  H        11.0280663209        6.5119253641        7.6198689728
  H         2.1746797844        7.4198973668        4.4695379333
  H         0.8562418683        8.2649559038        4.1765774134
  H        12.7472843183        4.2744612017       12.5467819708
  H        11.4200503450        5.0305611883       12.7944791308
  H        12.6273863728        4.6487766852       19.5555963326
  H        11.8465113223        3.5995407745       18.6931940315
  H         7.4918640092       13.1394444744        8.3899958426
  H         7.6305013119       11.4997368750        8.2647451692
  H        12.2081212663       -0.3627873135       11.4683920229
  H        13.5023302710       -0.1049126220       10.6489633486
  H        10.6353426053       -0.2606521785        7.3478755219
  H        11.3121454715        1.1601848030        7.0824423778
  H         8.0045483684        7.7400174329        3.6981662914
  H         7.2697596780        7.3888544350        4.9798178289
  H         2.2845177988        8.0217443286        9.8007599066
  H         0.8045032873        7.8538572235        9.6120270414
  H         7.2858373099        7.2352965937       10.3503193835
  H         7.3095674634        8.1857197234       11.6956992606
  H        11.2468216319        0.7258627090       13.6307538120
  H        11.5523482193        2.1768911783       12.9369620506
  H        -0.5579716385        8.6074639835       15.5833893660
  H        -0.7096319576        7.9650331489       14.1359471852
  H         6.3870560623       10.7179437337       11.1213061941
  H         5.3495636220        9.9853918937       11.7623233807
